<?xml version="1.0" encoding="UTF-8"?>

<!-- generated on 2025-06-02 17:11:35 by Eclipse SUMO netconvert Version 1.20.0
<configuration xmlns:xsi="http://www.w3.org/2001/XMLSchema-instance" xsi:noNamespaceSchemaLocation="http://sumo.dlr.de/xsd/netconvertConfiguration.xsd">

    <input>
        <node-files value="nodes.nod.xml"/>
        <edge-files value="edges.edg.xml"/>
    </input>

    <output>
        <output-file value="intersection.net.xml"/>
    </output>

</configuration>
-->

<net version="1.20" junctionCornerDetail="5" limitTurnSpeed="5.50" xmlns:xsi="http://www.w3.org/2001/XMLSchema-instance" xsi:noNamespaceSchemaLocation="http://sumo.dlr.de/xsd/net_file.xsd">

    <location netOffset="50.00,50.00" convBoundary="0.00,0.00,100.00,100.00" origBoundary="-50.00,-50.00,50.00,50.00" projParameter="!"/>

    <edge id=":C_0" function="internal">
        <lane id=":C_0_0" index="0" speed="6.51" length="9.03" shape="48.40,57.20 48.05,54.75 47.00,53.00 45.25,51.95 42.80,51.60"/>
    </edge>
    <edge id=":C_1" function="internal">
        <lane id=":C_1_0" index="0" speed="13.90" length="14.40" shape="48.40,57.20 48.40,42.80"/>
    </edge>
    <edge id=":C_2" function="internal">
        <lane id=":C_2_0" index="0" speed="8.00" length="4.07" shape="48.40,57.20 48.95,53.35 49.04,53.20"/>
    </edge>
    <edge id=":C_3" function="internal">
        <lane id=":C_3_0" index="0" speed="3.65" length="1.44" shape="48.40,57.20 49.20,56.00"/>
    </edge>
    <edge id=":C_16" function="internal">
        <lane id=":C_16_0" index="0" speed="8.00" length="10.13" shape="49.04,53.20 50.60,50.60 53.35,48.95 57.20,48.40"/>
    </edge>
    <edge id=":C_17" function="internal">
        <lane id=":C_17_0" index="0" speed="3.65" length="3.23" shape="49.20,56.00 50.00,55.60 50.80,56.00 51.60,57.20"/>
    </edge>
    <edge id=":C_4" function="internal">
        <lane id=":C_4_0" index="0" speed="6.51" length="9.03" shape="57.20,51.60 54.75,51.95 53.00,53.00 51.95,54.75 51.60,57.20"/>
    </edge>
    <edge id=":C_5" function="internal">
        <lane id=":C_5_0" index="0" speed="13.90" length="14.40" shape="57.20,51.60 42.80,51.60"/>
    </edge>
    <edge id=":C_6" function="internal">
        <lane id=":C_6_0" index="0" speed="8.00" length="4.07" shape="57.20,51.60 53.35,51.05 53.20,50.96"/>
    </edge>
    <edge id=":C_7" function="internal">
        <lane id=":C_7_0" index="0" speed="3.65" length="1.44" shape="57.20,51.60 56.00,50.80"/>
    </edge>
    <edge id=":C_18" function="internal">
        <lane id=":C_18_0" index="0" speed="8.00" length="10.13" shape="53.20,50.96 50.60,49.40 48.95,46.65 48.40,42.80"/>
    </edge>
    <edge id=":C_19" function="internal">
        <lane id=":C_19_0" index="0" speed="3.65" length="3.23" shape="56.00,50.80 55.60,50.00 56.00,49.20 57.20,48.40"/>
    </edge>
    <edge id=":C_8" function="internal">
        <lane id=":C_8_0" index="0" speed="6.51" length="9.03" shape="51.60,42.80 51.95,45.25 53.00,47.00 54.75,48.05 57.20,48.40"/>
    </edge>
    <edge id=":C_9" function="internal">
        <lane id=":C_9_0" index="0" speed="13.90" length="14.40" shape="51.60,42.80 51.60,57.20"/>
    </edge>
    <edge id=":C_10" function="internal">
        <lane id=":C_10_0" index="0" speed="8.00" length="4.07" shape="51.60,42.80 51.05,46.65 50.96,46.80"/>
    </edge>
    <edge id=":C_11" function="internal">
        <lane id=":C_11_0" index="0" speed="3.65" length="1.44" shape="51.60,42.80 50.80,44.00"/>
    </edge>
    <edge id=":C_20" function="internal">
        <lane id=":C_20_0" index="0" speed="8.00" length="10.13" shape="50.96,46.80 49.40,49.40 46.65,51.05 42.80,51.60"/>
    </edge>
    <edge id=":C_21" function="internal">
        <lane id=":C_21_0" index="0" speed="3.65" length="3.23" shape="50.80,44.00 50.00,44.40 49.20,44.00 48.40,42.80"/>
    </edge>
    <edge id=":C_12" function="internal">
        <lane id=":C_12_0" index="0" speed="6.51" length="9.03" shape="42.80,48.40 45.25,48.05 47.00,47.00 48.05,45.25 48.40,42.80"/>
    </edge>
    <edge id=":C_13" function="internal">
        <lane id=":C_13_0" index="0" speed="13.90" length="14.40" shape="42.80,48.40 57.20,48.40"/>
    </edge>
    <edge id=":C_14" function="internal">
        <lane id=":C_14_0" index="0" speed="8.00" length="4.07" shape="42.80,48.40 46.65,48.95 46.80,49.04"/>
    </edge>
    <edge id=":C_15" function="internal">
        <lane id=":C_15_0" index="0" speed="3.65" length="1.44" shape="42.80,48.40 44.00,49.20"/>
    </edge>
    <edge id=":C_22" function="internal">
        <lane id=":C_22_0" index="0" speed="8.00" length="10.13" shape="46.80,49.04 49.40,50.60 51.05,53.35 51.60,57.20"/>
    </edge>
    <edge id=":C_23" function="internal">
        <lane id=":C_23_0" index="0" speed="3.65" length="3.23" shape="44.00,49.20 44.40,50.00 44.00,50.80 42.80,51.60"/>
    </edge>
    <edge id=":E_0" function="internal">
        <lane id=":E_0_0" index="0" speed="3.65" length="4.67" shape="100.00,48.40 101.20,49.20 101.60,50.00 101.20,50.80 100.00,51.60"/>
    </edge>
    <edge id=":N_0" function="internal">
        <lane id=":N_0_0" index="0" speed="3.65" length="4.67" shape="51.60,100.00 50.80,101.20 50.00,101.60 49.20,101.20 48.40,100.00"/>
    </edge>
    <edge id=":S_0" function="internal">
        <lane id=":S_0_0" index="0" speed="3.65" length="4.67" shape="48.40,-0.00 49.20,-1.20 50.00,-1.60 50.80,-1.20 51.60,-0.00"/>
    </edge>
    <edge id=":W_0" function="internal">
        <lane id=":W_0_0" index="0" speed="3.65" length="4.67" shape="-0.00,51.60 -1.20,50.80 -1.60,50.00 -1.20,49.20 -0.00,48.40"/>
    </edge>

    <edge id="C2E" from="C" to="E" priority="1">
        <lane id="C2E_0" index="0" speed="13.90" length="42.80" shape="57.20,48.40 100.00,48.40"/>
    </edge>
    <edge id="C2N" from="C" to="N" priority="1">
        <lane id="C2N_0" index="0" speed="13.90" length="42.80" shape="51.60,57.20 51.60,100.00"/>
    </edge>
    <edge id="C2S" from="C" to="S" priority="1">
        <lane id="C2S_0" index="0" speed="13.90" length="42.80" shape="48.40,42.80 48.40,-0.00"/>
    </edge>
    <edge id="C2W" from="C" to="W" priority="1">
        <lane id="C2W_0" index="0" speed="13.90" length="42.80" shape="42.80,51.60 -0.00,51.60"/>
    </edge>
    <edge id="E2C" from="E" to="C" priority="1">
        <lane id="E2C_0" index="0" speed="13.90" length="42.80" shape="100.00,51.60 57.20,51.60"/>
    </edge>
    <edge id="N2C" from="N" to="C" priority="1">
        <lane id="N2C_0" index="0" speed="13.90" length="42.80" shape="48.40,100.00 48.40,57.20"/>
    </edge>
    <edge id="S2C" from="S" to="C" priority="1">
        <lane id="S2C_0" index="0" speed="13.90" length="42.80" shape="51.60,-0.00 51.60,42.80"/>
    </edge>
    <edge id="W2C" from="W" to="C" priority="1">
        <lane id="W2C_0" index="0" speed="13.90" length="42.80" shape="-0.00,48.40 42.80,48.40"/>
    </edge>

    <tlLogic id="C" type="static" programID="0" offset="0">
        <phase duration="42" state="GGggrrrrGGggrrrr"/>
        <phase duration="3"  state="yyyyrrrryyyyrrrr"/>
        <phase duration="42" state="rrrrGGggrrrrGGgg"/>
        <phase duration="3"  state="rrrryyyyrrrryyyy"/>
    </tlLogic>

    <junction id="C" type="traffic_light" x="50.00" y="50.00" incLanes="N2C_0 E2C_0 S2C_0 W2C_0" intLanes=":C_0_0 :C_1_0 :C_16_0 :C_17_0 :C_4_0 :C_5_0 :C_18_0 :C_19_0 :C_8_0 :C_9_0 :C_20_0 :C_21_0 :C_12_0 :C_13_0 :C_22_0 :C_23_0" shape="46.80,57.20 53.20,57.20 53.64,54.98 54.20,54.20 54.98,53.64 55.98,53.31 57.20,53.20 57.20,46.80 54.98,46.36 54.20,45.80 53.64,45.02 53.31,44.02 53.20,42.80 46.80,42.80 46.36,45.02 45.80,45.80 45.02,46.36 44.02,46.69 42.80,46.80 42.80,53.20 45.02,53.64 45.80,54.20 46.36,54.98 46.69,55.98">
        <request index="0"  response="0000000000000000" foes="1000010000100000" cont="0"/>
        <request index="1"  response="0100000001000000" foes="0111110001100000" cont="0"/>
        <request index="2"  response="0100011101000000" foes="0110011111100000" cont="1"/>
        <request index="3"  response="0100001000010000" foes="0100001000010000" cont="1"/>
        <request index="4"  response="0000001000000000" foes="0100001000001000" cont="0"/>
        <request index="5"  response="0000011000000111" foes="1100011000000111" cont="0"/>
        <request index="6"  response="0111011000000110" foes="0111111000000110" cont="1"/>
        <request index="7"  response="0010000100000100" foes="0010000100000100" cont="1"/>
        <request index="8"  response="0000000000000000" foes="0010000010000100" cont="0"/>
        <request index="9"  response="0100000001000000" foes="0110000001111100" cont="0"/>
        <request index="10" response="0100000001000011" foes="1110000001100111" cont="1"/>
        <request index="11" response="0001000001000010" foes="0001000001000010" cont="1"/>
        <request index="12" response="0000000000000010" foes="0000100001000010" cont="0"/>
        <request index="13" response="0000011100000110" foes="0000011111000110" cont="0"/>
        <request index="14" response="0000011000110110" foes="0000011001111110" cont="1"/>
        <request index="15" response="0000010000100001" foes="0000010000100001" cont="1"/>
    </junction>
    <junction id="E" type="priority" x="100.00" y="50.00" incLanes="C2E_0" intLanes=":E_0_0" shape="100.00,50.00 100.00,46.80 100.00,50.00">
        <request index="0" response="0" foes="0" cont="0"/>
    </junction>
    <junction id="N" type="priority" x="50.00" y="100.00" incLanes="C2N_0" intLanes=":N_0_0" shape="50.00,100.00 53.20,100.00 50.00,100.00">
        <request index="0" response="0" foes="0" cont="0"/>
    </junction>
    <junction id="S" type="priority" x="50.00" y="0.00" incLanes="C2S_0" intLanes=":S_0_0" shape="50.00,-0.00 46.80,-0.00 50.00,-0.00">
        <request index="0" response="0" foes="0" cont="0"/>
    </junction>
    <junction id="W" type="priority" x="0.00" y="50.00" incLanes="C2W_0" intLanes=":W_0_0" shape="-0.00,50.00 -0.00,53.20 -0.00,50.00">
        <request index="0" response="0" foes="0" cont="0"/>
    </junction>

    <junction id=":C_16_0" type="internal" x="49.04" y="53.20" incLanes=":C_2_0 S2C_0" intLanes=":C_5_0 :C_6_0 :C_7_0 :C_8_0 :C_9_0 :C_13_0 :C_14_0"/>
    <junction id=":C_17_0" type="internal" x="49.20" y="56.00" incLanes=":C_3_0 E2C_0 S2C_0 W2C_0" intLanes=":C_4_0 :C_9_0 :C_14_0"/>
    <junction id=":C_18_0" type="internal" x="53.20" y="50.96" incLanes=":C_6_0 W2C_0" intLanes=":C_1_0 :C_2_0 :C_9_0 :C_10_0 :C_11_0 :C_12_0 :C_13_0"/>
    <junction id=":C_19_0" type="internal" x="56.00" y="50.80" incLanes=":C_7_0 N2C_0 S2C_0 W2C_0" intLanes=":C_2_0 :C_8_0 :C_13_0"/>
    <junction id=":C_20_0" type="internal" x="50.96" y="46.80" incLanes=":C_10_0 N2C_0" intLanes=":C_0_0 :C_1_0 :C_5_0 :C_6_0 :C_13_0 :C_14_0 :C_15_0"/>
    <junction id=":C_21_0" type="internal" x="50.80" y="44.00" incLanes=":C_11_0 E2C_0 N2C_0 W2C_0" intLanes=":C_1_0 :C_6_0 :C_12_0"/>
    <junction id=":C_22_0" type="internal" x="46.80" y="49.04" incLanes=":C_14_0 E2C_0" intLanes=":C_1_0 :C_2_0 :C_3_0 :C_4_0 :C_5_0 :C_9_0 :C_10_0"/>
    <junction id=":C_23_0" type="internal" x="44.00" y="49.20" incLanes=":C_15_0 E2C_0 N2C_0 S2C_0" intLanes=":C_0_0 :C_5_0 :C_10_0"/>

    <connection from="C2E" to="E2C" fromLane="0" toLane="0" via=":E_0_0" dir="t" state="M"/>
    <connection from="C2N" to="N2C" fromLane="0" toLane="0" via=":N_0_0" dir="t" state="M"/>
    <connection from="C2S" to="S2C" fromLane="0" toLane="0" via=":S_0_0" dir="t" state="M"/>
    <connection from="C2W" to="W2C" fromLane="0" toLane="0" via=":W_0_0" dir="t" state="M"/>
    <connection from="E2C" to="C2N" fromLane="0" toLane="0" via=":C_4_0" tl="C" linkIndex="4" dir="r" state="o"/>
    <connection from="E2C" to="C2W" fromLane="0" toLane="0" via=":C_5_0" tl="C" linkIndex="5" dir="s" state="o"/>
    <connection from="E2C" to="C2S" fromLane="0" toLane="0" via=":C_6_0" tl="C" linkIndex="6" dir="l" state="o"/>
    <connection from="E2C" to="C2E" fromLane="0" toLane="0" via=":C_7_0" tl="C" linkIndex="7" dir="t" state="o"/>
    <connection from="N2C" to="C2W" fromLane="0" toLane="0" via=":C_0_0" tl="C" linkIndex="0" dir="r" state="O"/>
    <connection from="N2C" to="C2S" fromLane="0" toLane="0" via=":C_1_0" tl="C" linkIndex="1" dir="s" state="O"/>
    <connection from="N2C" to="C2E" fromLane="0" toLane="0" via=":C_2_0" tl="C" linkIndex="2" dir="l" state="o"/>
    <connection from="N2C" to="C2N" fromLane="0" toLane="0" via=":C_3_0" tl="C" linkIndex="3" dir="t" state="o"/>
    <connection from="S2C" to="C2E" fromLane="0" toLane="0" via=":C_8_0" tl="C" linkIndex="8" dir="r" state="O"/>
    <connection from="S2C" to="C2N" fromLane="0" toLane="0" via=":C_9_0" tl="C" linkIndex="9" dir="s" state="O"/>
    <connection from="S2C" to="C2W" fromLane="0" toLane="0" via=":C_10_0" tl="C" linkIndex="10" dir="l" state="o"/>
    <connection from="S2C" to="C2S" fromLane="0" toLane="0" via=":C_11_0" tl="C" linkIndex="11" dir="t" state="o"/>
    <connection from="W2C" to="C2S" fromLane="0" toLane="0" via=":C_12_0" tl="C" linkIndex="12" dir="r" state="o"/>
    <connection from="W2C" to="C2E" fromLane="0" toLane="0" via=":C_13_0" tl="C" linkIndex="13" dir="s" state="o"/>
    <connection from="W2C" to="C2N" fromLane="0" toLane="0" via=":C_14_0" tl="C" linkIndex="14" dir="l" state="o"/>
    <connection from="W2C" to="C2W" fromLane="0" toLane="0" via=":C_15_0" tl="C" linkIndex="15" dir="t" state="o"/>

    <connection from=":C_0" to="C2W" fromLane="0" toLane="0" dir="r" state="M"/>
    <connection from=":C_1" to="C2S" fromLane="0" toLane="0" dir="s" state="M"/>
    <connection from=":C_2" to="C2E" fromLane="0" toLane="0" via=":C_16_0" dir="l" state="m"/>
    <connection from=":C_16" to="C2E" fromLane="0" toLane="0" dir="l" state="M"/>
    <connection from=":C_3" to="C2N" fromLane="0" toLane="0" via=":C_17_0" dir="t" state="m"/>
    <connection from=":C_17" to="C2N" fromLane="0" toLane="0" dir="t" state="M"/>
    <connection from=":C_4" to="C2N" fromLane="0" toLane="0" dir="r" state="M"/>
    <connection from=":C_5" to="C2W" fromLane="0" toLane="0" dir="s" state="M"/>
    <connection from=":C_6" to="C2S" fromLane="0" toLane="0" via=":C_18_0" dir="l" state="m"/>
    <connection from=":C_18" to="C2S" fromLane="0" toLane="0" dir="l" state="M"/>
    <connection from=":C_7" to="C2E" fromLane="0" toLane="0" via=":C_19_0" dir="t" state="m"/>
    <connection from=":C_19" to="C2E" fromLane="0" toLane="0" dir="t" state="M"/>
    <connection from=":C_8" to="C2E" fromLane="0" toLane="0" dir="r" state="M"/>
    <connection from=":C_9" to="C2N" fromLane="0" toLane="0" dir="s" state="M"/>
    <connection from=":C_10" to="C2W" fromLane="0" toLane="0" via=":C_20_0" dir="l" state="m"/>
    <connection from=":C_20" to="C2W" fromLane="0" toLane="0" dir="l" state="M"/>
    <connection from=":C_11" to="C2S" fromLane="0" toLane="0" via=":C_21_0" dir="t" state="m"/>
    <connection from=":C_21" to="C2S" fromLane="0" toLane="0" dir="t" state="M"/>
    <connection from=":C_12" to="C2S" fromLane="0" toLane="0" dir="r" state="M"/>
    <connection from=":C_13" to="C2E" fromLane="0" toLane="0" dir="s" state="M"/>
    <connection from=":C_14" to="C2N" fromLane="0" toLane="0" via=":C_22_0" dir="l" state="m"/>
    <connection from=":C_22" to="C2N" fromLane="0" toLane="0" dir="l" state="M"/>
    <connection from=":C_15" to="C2W" fromLane="0" toLane="0" via=":C_23_0" dir="t" state="m"/>
    <connection from=":C_23" to="C2W" fromLane="0" toLane="0" dir="t" state="M"/>
    <connection from=":E_0" to="E2C" fromLane="0" toLane="0" dir="t" state="M"/>
    <connection from=":N_0" to="N2C" fromLane="0" toLane="0" dir="t" state="M"/>
    <connection from=":S_0" to="S2C" fromLane="0" toLane="0" dir="t" state="M"/>
    <connection from=":W_0" to="W2C" fromLane="0" toLane="0" dir="t" state="M"/>

</net>
